65
CCC(=O)O[C@]1(C(=O)SCF)[C@H](C)C[C@H]2[C@@H]3C[C@H](F)C4=CC(=O)C=C[C@]4(C)[C@@]3(F)[C@@H](O)C[C@@]21C
C       5.14477967      2.94215741      0.58600708
C       3.74946522      2.41052430      0.32608613
C       3.70468628      0.90303228      0.34413507
O       4.67063570      0.16268763      0.42072754
O       2.41280321      0.48875222      0.25305058
C       2.10000018     -0.92563748      0.24930244
C       2.88984462     -1.79953708      1.27852246
O       3.34039453     -2.91327985      1.03677862
S       3.01584381     -1.14692747      2.91588020
C       4.77406255     -1.46562017      3.16817101
F       5.34460903     -0.33039847      3.67263636
C       2.21584929     -1.50724251     -1.21891566
C       3.37589727     -1.00937698     -2.07322523
C       0.85458965     -1.23240735     -1.91373323
C       0.02076412     -0.48800549     -0.87578088
C      -1.51058686     -0.50092070     -1.02296602
C      -1.92508096      0.01603036     -2.41299871
C      -3.43631595      0.09698823     -2.56574036
F      -3.70018294      0.61764188     -3.79658433
C      -4.04252813      0.93086542     -1.46700587
C      -4.76854801      2.02687464     -1.75159063
C      -5.33163410      2.88945574     -0.69290157
O      -6.01448909      3.87116684     -0.95874106
C      -5.03901538      2.52098171      0.70429503
C      -4.31285197      1.43211366      0.99366777
C      -3.72614165      0.46525747     -0.03511490
C      -4.45279890     -0.88238641      0.19394924
C      -2.14660682      0.37978911      0.10578974
F      -1.66735491      1.66360455     -0.11063302
C      -1.61525213     -0.00688698      1.51919641
O      -2.20593395     -1.20648747      2.00762361
C      -0.07339844     -0.12768008      1.57999000
C       0.52828323     -1.03864113      0.48119384
C       0.11283135     -2.51599906      0.72957239
H       5.84757597      2.59901232     -0.17937243
H       5.52058348      2.60343541      1.55701413
H       5.14604244      4.03726947      0.58271539
H       3.39874035      2.75767496     -0.64624956
H       3.07254803      2.78144891      1.09948082
H       4.90813655     -2.25779731      3.91564562
H       5.30928368     -1.73684295      2.25411008
H       2.32634683     -2.59997771     -1.17276227
H       4.33788922     -1.26447788     -1.62066392
H       3.35158378     -1.48691109     -3.05905152
H       3.33228528      0.07244833     -2.23523830
H       0.96643637     -0.63723971     -2.82809623
H       0.37958038     -2.17941050     -2.19580028
H       0.32133620      0.56964913     -0.96209150
H      -1.87394489     -1.52979081     -0.93620553
H      -1.48661695      1.00376693     -2.60361232
H      -1.53180267     -0.63557741     -3.20112946
H      -3.87080201     -0.90685394     -2.55517204
H      -4.96742024      2.34493994     -2.76950787
H      -5.44927664      3.16896441      1.47022425
H      -4.15499305      1.19921139      2.04492815
H      -4.51597221     -1.15010964      1.25504447
H      -5.48842725     -0.84143280     -0.16724341
H      -3.96951554     -1.71519989     -0.32339246
H      -1.88710249      0.78865859      2.22392781
H      -1.86902543     -1.35679403      2.90906456
H       0.34322633      0.88370439      1.49842324
H       0.20608874     -0.50565692      2.56937427
H      -0.95909484     -2.68069812      0.60983229
H       0.37156293     -2.82667860      1.74816998
H       0.59812816     -3.21922365      0.04698998
