65
CCC(=O)O[C@]1(C(=O)SCF)[C@H](C)C[C@H]2[C@@H]3C[C@H](F)C4=CC(=O)C=C[C@]4(C)[C@@]3(F)[C@@H](O)C[C@@]21C
C      -3.94634154     -3.72869321     -0.53416726
C      -3.56515801     -2.77356949      0.57870710
C      -3.64553075     -1.34591411      0.10523359
O      -4.68289225     -0.78182255     -0.20974602
O      -2.40975752     -0.78318857      0.07383817
C      -2.24227862      0.59227555     -0.35135757
C      -3.33210121      1.59555931      0.15031936
O      -3.86522613      2.44093790     -0.56035107
S      -3.72628492      1.52369449      1.87311034
C      -5.45782806      2.00376702      1.72146296
F      -6.03844165      1.94084256      2.95144880
C      -2.08946352      0.66246756     -1.92787185
C      -2.94018697     -0.30279316     -2.74606863
C      -0.58348949      0.47203177     -2.24180014
C       0.06891000      0.20705224     -0.89206318
C       1.58492076      0.43022238     -0.75983354
C       2.34425718     -0.37693844     -1.82758284
C       3.85518491     -0.28095161     -1.66572897
F       4.42285830     -1.09029394     -2.60521152
C       4.26913272     -0.67771767     -0.27277465
C       5.12238726     -1.69828503     -0.07034805
C       5.49690055     -2.14730309      1.28454234
O       6.28767952     -3.06511714      1.45964086
C       4.87894831     -1.44240994      2.42310352
C       4.02984389     -0.42481130      2.22799900
C       3.60635249      0.12074992      0.86408423
C       4.14740779      1.56817092      0.80202414
C       2.03575737      0.01338051      0.67890232
F       1.72659943     -1.33392190      0.78887895
C       1.17683554      0.70980796      1.77698889
O       1.52370387      2.08003457      1.94361586
C      -0.34490450      0.59207951      1.52528284
C      -0.78198455      1.03139613      0.10511630
C      -0.59436916      2.56527300     -0.06269114
H      -3.90290942     -4.76344168     -0.18108050
H      -4.96148685     -3.53162943     -0.89449122
H      -3.26554232     -3.62826276     -1.38596863
H      -4.23310581     -2.88397373      1.43941830
H      -2.55126091     -2.99428745      0.93096030
H      -6.00277950      1.32655841      1.05918194
H      -5.55349298      3.03157147      1.36221079
H      -2.35179726      1.66847448     -2.27967975
H      -2.75910691     -0.15276053     -3.81645092
H      -4.00604762     -0.13017151     -2.57418899
H      -2.70509181     -1.34727714     -2.52163271
H      -0.17987809      1.38126756     -2.70297220
H      -0.40164851     -0.35392135     -2.93807478
H      -0.09566225     -0.86335966     -0.68957766
H       1.81318880      1.48751688     -0.92714494
H       2.04263046     -1.43255512     -1.79509802
H       2.08106963     -0.02484128     -2.83228168
H       4.19845882      0.73528685     -1.88449668
H       5.56725855     -2.25906800     -0.88575851
H       5.16002232     -1.78733693      3.41084164
H       3.62966998      0.07110670      3.10989300
H       3.73955772      2.13562806     -0.03966010
H       5.24026005      1.57696233      0.69381872
H       3.92986308      2.13420502      1.71415245
H       1.36995530      0.21660161      2.73662492
H       1.01087241      2.42857222      2.69587859
H      -0.62719173     -0.45323639      1.69916322
H      -0.87022706      1.19073477      2.27646705
H      -1.00405017      2.94336578     -1.00378284
H       0.45239986      2.87370717     -0.04959397
H      -1.09536884      3.10855150      0.74610017
